output/compact_ny_2025/generation_reconstruction/V3_2025_JUL15_EVENING/replay_audit_branch.csv
branch_row,device_key,from_bus,to_bus,online,rate_a_mva,from_mva,to_mva,from_overload_mva,to_overload_mva,angle_deg,angle_min_deg,angle_max_deg,angle_below_min_deg,angle_above_max_deg,violated,invalid_limit_bounds,stored_terminal_flow_error_mva,stored_terminal_flow_inconsistent
1,NPCC_S7:BRANCH_ROW:33,37,38,1,2500,142.337900986899,139.420264858999,0,0,-1.06690544925461,-360,360,0,0,0,0,1.14185345125777e-13,0
2,NPCC_S7:BRANCH_ROW:34,37,39,1,3388,655.853514696869,654.987124769828,0,0,2.31005446539356,-360,360,0,0,0,0,2.31335954426011e-13,0
3,NPCC_S7:BRANCH_ROW:35,37,40,1,2500,118.762572024061,120.631449669848,0,0,-1.5624407816124,-360,360,0,0,0,0,7.82791100886255e-13,0
4,NPCC_S7:BRANCH_ROW:36,37,43,0,3745.98196383403,0,0,0,0,-2.33314416460387,-360,360,0,0,0,0,0,0
5,NPCC_S7:BRANCH_ROW:37,38,69,1,1216,180.055233097514,188.283952287758,0,0,-4.14255180038283,-360,360,0,0,0,0,2.8421709430404e-14,0
6,NPCC_S7:BRANCH_ROW:38,39,73,1,2500,481.535362171859,477.63034489375,0,0,4.26514044678081,-360,360,0,0,0,0,5.72857867687912e-14,0
7,NPCC_S7:BRANCH_ROW:39,39,73,1,2500,481.535362171859,477.63034489375,0,0,4.26514044678081,-360,360,0,0,0,0,5.72857867687912e-14,0
8,NPCC_S7:BRANCH_ROW:40,40,44,0,1328.76341358641,0,0,0,0,-0.904517310538164,-360,360,0,0,0,0,0,0
9,NPCC_S7:BRANCH_ROW:41,41,42,1,2500,523.1633789748,526.394053881322,0,0,-2.40832601514797,-360,360,0,0,0,0,0,0
10,NPCC_S7:BRANCH_ROW:42,41,45,1,314.254622579561,27.7614919641827,18.993032674333,0,0,2.55345442560472,-360,360,0,0,0,0,5.02429586778808e-15,0
11,NPCC_S7:BRANCH_ROW:43,43,44,1,2500,43.9130098249265,43.7677586847796,0,0,-0.133813927546692,-360,360,0,0,0,0,1.45834460964336e-13,0
12,NPCC_S7:BRANCH_ROW:44,43,50,1,3463.47124449306,130.33552875687,161.635261389151,0,0,-1.40977950121312,-360,360,0,0,0,0,2.8421709430404e-14,0
13,NPCC_S7:BRANCH_ROW:45,43,50,1,3463.47124449306,130.33552875687,161.635261389151,0,0,-1.40977950121312,-360,360,0,0,0,0,2.8421709430404e-14,0
14,NPCC_S7:BRANCH_ROW:46,44,45,1,2500,284.069354190573,280.790518335404,0,0,2.751311728102,-360,360,0,0,0,0,5.85928550210846e-14,0
15,NPCC_S7:BRANCH_ROW:47,44,48,0,6896.14528055676,0,0,0,0,-13.4422944373606,-360,360,0,0,0,0,0,0
16,NPCC_S7:BRANCH_ROW:48,45,46,1,2040.85471944324,70.0099319427343,76.1498299978667,0,0,-13.5273456169544,-360,360,0,0,0,0,7.105427357601e-15,0
17,NPCC_S7:BRANCH_ROW:49,45,51,1,489.56239109923,27.5557214263679,31.3064927587244,0,0,-2.871925779689,-360,360,0,0,0,0,3.5527136788005e-15,0
18,NPCC_S7:BRANCH_ROW:50,45,71,1,166.495119914644,20.5698117811674,24.4008485981949,0,0,-6.29532225516029,-360,360,0,0,0,0,3.55314733320295e-15,0
19,NPCC_S7:BRANCH_ROW:51,46,47,1,2500,87.198853010812,90.3313270408952,0,0,-5.77506867167567,-360,360,0,0,0,0,2.13754119563579e-13,0
20,NPCC_S7:BRANCH_ROW:52,46,49,1,2500,4.31591541428295,4.05383369367965,0,0,0.638365175085732,-360,360,0,0,0,0,1.25056656943989e-14,0
21,NPCC_S7:BRANCH_ROW:53,47,48,1,2500,199.332204445148,198.286979776423,0,0,3.10880812316745,-360,360,0,0,0,0,7.77437745650566e-13,0
22,NPCC_S7:BRANCH_ROW:54,50,51,1,2500,111.244084101213,111.351267902896,0,0,1.15535152207943,-360,360,0,0,0,0,2.8421709430404e-14,0
23,NPCC_S7:BRANCH_ROW:55,50,52,1,2858.06690137886,371.275477713413,354.107432989355,0,0,3.96183515591087,-360,360,0,0,0,0,7.69488586381663e-13,0
24,NPCC_S7:BRANCH_ROW:56,51,53,1,290.964700741948,70.8993927286561,62.9614023629268,0,0,7.81867586666274,-360,360,0,0,0,0,1.11500887289219e-13,0
25,NPCC_S7:BRANCH_ROW:57,51,72,1,2500,222.997940612137,227.263611450627,0,0,-2.63934913907996,-360,360,0,0,0,0,2.84355838317334e-14,0
26,NPCC_S7:BRANCH_ROW:58,52,53,1,2500,258.858056077269,255.82560294972,0,0,5.0121922328313,-360,360,0,0,0,0,1.13686837721616e-13,0
27,NPCC_S7:BRANCH_ROW:59,53,55,1,997.983883346124,41.7678187755279,42.3426758013977,0,0,-2.10555673662563,-360,360,0,0,0,0,2.03375404074701e-13,0
28,NPCC_S7:BRANCH_ROW:60,53,65,1,785.968397879188,14.0192123745415,16.741779817769,0,0,-0.67668822496551,-360,360,0,0,0,0,4.01240437868773e-13,0
29,NPCC_S7:BRANCH_ROW:61,54,56,1,789.941803,63.860566363602,65.2132266427474,0,0,-0.293711437178411,-360,360,0,0,0,0,1.77635683940025e-15,0
30,NPCC_S7:BRANCH_ROW:62,54,62,1,789.941803,18.9231542063406,16.4327037865969,0,0,0.554566840706631,-360,360,0,0,0,0,3.82598769514117e-13,0
31,NPCC_S7:BRANCH_ROW:65,55,57,1,789.941803,39.507883822494,39.2015896537979,0,0,0.802066584962359,-360,360,0,0,0,0,7.59690238026729e-13,0
32,NPCC_S7:BRANCH_ROW:66,55,59,1,789.941803,14.176822356538,14.5095892758937,0,0,0.571115185064423,-360,360,0,0,0,0,4.83348825861675e-14,0
33,NPCC_S7:BRANCH_ROW:67,56,58,1,2500,196.26655970839,196.688734562211,0,0,1.41964517593544,-360,360,0,0,0,0,1.73501965819508e-13,0
34,NPCC_S7:BRANCH_ROW:68,57,59,1,2500,6.44145666212638,8.45949111554648,0,0,-0.230951399897936,-360,360,0,0,0,0,3.82484319774336e-13,0
35,NPCC_S7:BRANCH_ROW:69,58,60,1,2500,46.8454030421272,31.6329463824769,0,0,-0.501135357276927,-360,360,0,0,0,0,7.95141947258601e-13,0
36,NPCC_S7:BRANCH_ROW:70,58,62,1,2500,65.7734566691551,65.4261480468667,0,0,-0.571366898050394,-360,360,0,0,0,0,1.557321008483e-12,0
37,NPCC_S7:BRANCH_ROW:71,59,61,1,2500,16.3789870998339,17.7822519822809,0,0,-1.29170190622772,-360,360,0,0,0,0,6.93889390390723e-17,0
38,NPCC_S7:BRANCH_ROW:73,62,63,1,620,49.219632490352,50.6576154897751,0,0,-1.98054948853879,-360,360,0,0,0,0,3.86119670826972e-13,0
39,NPCC_S7:BRANCH_ROW:74,63,64,1,2500,87.5940272633073,87.0086041178563,0,0,1.95965978412797,-360,360,0,0,0,0,5.72857867687912e-14,0
40,NPCC_S7:BRANCH_ROW:75,63,67,1,2500,135.146288337624,136.863512440966,0,0,-6.13078818969504,-360,360,0,0,0,0,2.66453525910038e-15,0
41,NPCC_S7:BRANCH_ROW:76,64,65,1,2500,62.812162601743,61.2043880948314,0,0,2.64872106937718,-360,360,0,0,0,0,4.32206272925713e-14,0
42,NPCC_S7:BRANCH_ROW:77,64,68,1,2500,59.4851324907633,64.7014954992841,0,0,-7.62989321804657,-360,360,0,0,0,0,2.89169943032514e-14,0
43,NPCC_S7:BRANCH_ROW:78,66,67,1,2500,75.3914289187625,75.0627144448513,0,0,0.787704152882208,-360,360,0,0,0,0,7.90748195011777e-13,0
44,NPCC_S7:BRANCH_ROW:79,66,69,1,2500,137.391108014496,135.221566136094,0,0,1.76300044848528,-360,360,0,0,0,0,7.89821867305719e-13,0
45,NPCC_S7:BRANCH_ROW:81,67,68,1,2500,25.6433982230659,25.4702670483754,0,0,0.460554755776439,-360,360,0,0,0,0,1.4210854715202e-14,0
46,NPCC_S7:BRANCH_ROW:82,67,70,1,2500,6.82395410911942,20.1122570170041,0,0,0.0774459130966019,-360,360,0,0,0,0,3.91863875890093e-13,0
47,NPCC_S7:BRANCH_ROW:84,68,71,1,2500,0.639979680003624,8.81291219585923,0,0,-0.286769829744775,-360,360,0,0,0,0,1.77641104868172e-15,0
48,NPCC_S7:BRANCH_ROW:85,69,71,1,2500,76.4738072339915,75.0032208747852,0,0,-0.801511369571412,-360,360,0,0,0,0,1.58882185807825e-14,0
49,NPCC_S7:BRANCH_ROW:86,70,71,1,2500,20.1122570170041,19.9481515622278,0,0,0.0963390129350625,-360,360,0,0,0,0,7.78069135867267e-13,0
50,NPCC_S7:BRANCH_ROW:87,71,72,1,2500,113.541969736264,111.511705322402,0,0,0.78404733639133,-360,360,0,0,0,0,3.83697189225549e-13,0
51,NPCC_S7:BRANCH_ROW:88,73,74,0,1599.84337349398,0,0,0,0,2.94304752131349,-360,360,0,0,0,0,0,0
52,NPCC_S7:BRANCH_ROW:89,73,74,0,1599.84337349398,0,0,0,0,2.94304752131349,-360,360,0,0,0,0,0,0
53,NPCC_S7:BRANCH_ROW:90,74,77,1,2500,114.718197481489,116.47834786825,0,0,-0.250713228932899,-360,360,0,0,0,0,7.105427357601e-15,0
54,NPCC_S7:BRANCH_ROW:91,74,78,1,2889.50495049505,404.240457060331,408.959390829356,0,0,0.89749361580871,-360,360,0,0,0,0,3.03840735697897e-12,0
55,NPCC_S7:BRANCH_ROW:92,74,78,1,2889.50495049505,404.240457060331,408.959390829356,0,0,0.89749361580871,-360,360,0,0,0,0,3.03840735697897e-12,0
56,NPCC_S7:BRANCH_ROW:94,76,77,0,4611.31325301205,0,0,0,0,0.47757021199868,-360,360,0,0,0,0,0,0
57,NPCC_S7:BRANCH_ROW:95,78,79,0,908.848753535103,0,0,0,0,1.76064878997653,-360,360,0,0,0,0,0,0
58,NPCC_S7:BRANCH_ROW:96,78,80,1,984.654731457801,28.97802222552,26.9334917916921,0,0,0.0190628787104909,-360,360,0,0,0,0,9.52309938079355e-14,0
59,NPCC_S7:BRANCH_ROW:97,78,81,0,503.818330764024,0,0,0,0,-1.88962704864572,-360,360,0,0,0,0,0,0
60,NPCC_S7:BRANCH_ROW:98,78,82,1,451.473569126203,161.131234005516,160.938040813979,0,0,2.54547949841798,-360,360,0,0,0,0,1.80761765618398e-13,0
61,NPCC_S7:BRANCH_ROW:219,40,41,1,2500,153.530812206524,150.854111236218,0,0,-0.70666000804089,-360,360,0,0,0,0,1.54924389164174e-12,0
62,NPCC_S7:BRANCH_ROW:220,49,48,1,2500,44.5943851938923,44.9279557420858,0,0,-3.30462572359395,-360,360,0,0,0,0,7.1607233460989e-15,0
63,NPCC_S7:BRANCH_ROW:222,54,52,1,4583.01611665388,99.8283899255751,99.5657877437168,0,0,-1.15310580219279,-360,360,0,0,0,0,7.68577691325982e-13,0
64,NPCC_S7:BRANCH_ROW:223,54,55,1,2500,273.112005031886,271.963784217678,0,0,1.75352969401288,-360,360,0,0,0,0,4.00181302220765e-13,0
65,NPCC_S7:BRANCH_ROW:224,56,57,1,2500,41.3485650203039,40.9346748485744,0,0,2.84930771615365,-360,360,0,0,0,0,1.95399252334028e-13,0
66,NPCC_S7:BRANCH_ROW:225,58,59,1,2500,264.732132858478,263.404117296893,0,0,1.19871114032028,-360,360,0,0,0,0,4.00181302220765e-13,0
67,NPCC_S7:BRANCH_ROW:226,60,61,1,2500,16.9390205832064,16.8366914016447,0,0,0.40814459136948,-360,360,0,0,0,0,3.84699182820919e-13,0
68,NPCC_S7:BRANCH_ROW:227,75,76,1,2500,147.919240490129,147.906797628239,0,0,0.557155505794393,-360,360,0,0,0,0,7.59859640280521e-13,0
69,NPCC_S7:BRANCH_ROW:234,38,39,1,1216,357.244053445684,360.684845598299,0,0,3.37695991464817,-360,360,0,0,0,0,5.69543329542959e-14,0
70,NPCC_S7:BRANCH_ROW:235,73,9002,0,2432,0,0,0,0,1.53814222789063,-360,360,0,0,0,0,0,0
71,NPCC_S7:BRANCH_ROW:236,9002,74,0,2432,0,0,0,0,1.40490529342286,-360,360,0,0,0,0,0,0
72,NPCC_S7:BRANCH_ROW:237,74,78,1,866.851485148515,122.735436300408,122.147101057826,0,0,0.89749361580871,-360,360,0,0,0,0,7.54456204086116e-13,0
73,NPCC_S7:BRANCH_ROW:238,77,78,1,650.138613861386,114.94547689494,114.462289567717,0,0,1.14820684474161,-360,360,0,0,0,0,7.67155851583187e-13,0
74,NPCC_S7:BRANCH_ROW:239,78,81,0,1158.78216075726,0,0,0,0,-1.88962704864572,-360,360,0,0,0,0,0,0
75,NPCC_S7:BRANCH_ROW:240,78,79,0,1390.53859290871,0,0,0,0,1.76064878997653,-360,360,0,0,0,0,0,0
76,NPCC_S7:BRANCH_ROW:241,78,82,1,1390.53859290871,495.458566380666,494.864521270143,0,0,2.54547949841798,-360,360,0,0,0,0,7.57399582948382e-13,0
77,NPCC_S7:BRANCH_ROW:242,78,9003,1,2865.3452685422,148.457281463436,148.678780721914,0,0,-1.52146302815808,-360,360,0,0,0,0,7.37750876986448e-13,0
78,NPCC_S7:BRANCH_ROW:243,9003,80,1,5000,150.445602461022,150.295269450487,0,0,1.54052590686857,-360,360,0,0,0,0,3.77983381525285e-13,0
79,NPCC_S7:BRANCH_ROW:244,81,80,1,2950,123.911112869002,124.261137601953,0,0,1.90868992735621,-360,360,0,0,0,0,8.06051154279e-13,0
80,NPCC_S7:BRANCH_ROW:245,39,9001,1,5000,156.356208470045,155.550999610678,0,0,2.64507185383693,-360,360,0,0,0,0,1.15353828498529e-13,0
81,NPCC_S7:BRANCH_ROW:246,9001,73,0,5000,0,0,0,0,1.62006859294388,-360,360,0,0,0,0,0,0
82,PERFORM2019:AC:651:858:1,73,858,1,1216,250.509313323904,251.192027185975,0,0,0.653806679124811,-360,360,0,0,0,0,1.53632172743724e-12,0
83,PERFORM2019:AC:651:858:2,73,858,1,1216,250.5092885653,251.192081001633,0,0,0.653806679124811,-360,360,0,0,0,0,1.56284274501069e-12,0
84,PERFORM2019:AC:651:902:1,73,9002,1,1216,250.999556234934,253.618640362557,0,0,1.53814222789063,-360,360,0,0,0,0,5.69543329542959e-14,0
85,PERFORM2019:AC:651:902:2,73,9002,1,1216,250.999530945413,253.618732262003,0,0,1.53814222789063,-360,360,0,0,0,0,5.6843418860808e-14,0
86,PERFORM2019:AC:858:902:1,858,9002,1,1216,251.192000278638,253.116878696016,0,0,0.884335548765819,-360,360,0,0,0,0,5.95543334264911e-14,0
87,PERFORM2019:AC:858:902:2,858,9002,1,1216,251.192107909949,253.116695222171,0,0,0.884335548765819,-360,360,0,0,0,0,3.5527136788005e-14,0
88,PERFORM2019:AC:897:902:1,9002,74,1,1216,506.734412129091,506.533676072405,0,0,1.40490529342286,-360,360,0,0,0,0,1.53055589383215e-12,0
89,PERFORM2019:AC:897:902:2,9002,74,1,1216,506.736523949212,506.531490762965,0,0,1.40490529342286,-360,360,0,0,0,0,1.53055589383215e-12,0
90,PERFORM2019:AC:774:1519:1,76,774,1,1216,117.229316212351,115.629084466147,0,0,0.162129589329025,-360,360,0,0,0,0,6.21054998621991e-12,0
91,PERFORM2019:AC:774:900:1,774,77,1,1725,115.629084466148,113.941545412988,0,0,0.315440622669655,-360,360,0,0,0,0,1.52003011478661e-12,0
92,PERFORM2019:AC:900:1519:1,76,77,1,1725,116.263304993631,112.932097236917,0,0,0.47757021199868,-360,360,0,0,0,0,1.14256067291115e-12,0
93,NY2025:CEEC:351,43,9101,1,2000,131.489168876697,111.376298224533,0,0,1.43952977955671,-360,360,0,0,0,0,1.4210854715202e-14,0
94,NY2025:CEEC:352,43,9101,1,2000,131.489168876697,111.376298224533,0,0,1.43952977955671,-360,360,0,0,0,0,1.4210854715202e-14,0
95,NY2025:CEEC:361,9101,37,1,2000,182.549646008299,184.931402036372,0,0,0.893614385047159,-360,360,0,0,0,0,3.5527136788005e-15,0
96,NY2025:CEEC:362,9101,37,1,2000,182.549646008299,184.931402036372,0,0,0.893614385047159,-360,360,0,0,0,0,3.5527136788005e-15,0
97,NY2025:CEEC:14,43,9102,1,2000,116.940903722248,94.8004012013707,0,0,1.30303625770502,-360,360,0,0,0,0,1.46482137552712e-14,0
98,NY2025:CEEC:371,9101,9102,1,2000,144.044005196553,144.835991094838,0,0,-0.136493521851694,-360,360,0,0,0,0,2.86428933843956e-14,0
99,NY2025:CEEC:LEGACY230:1,40,9103,1,1328.76341358641,60.7154272332376,38.6628856882391,0,0,-0.07480777132906,-360,360,0,0,0,0,1.56658157482423e-12,0
100,NY2025:CEEC:LEGACY230:2,9103,44,1,1328.76341358641,62.8910460179926,67.3952139082704,0,0,-0.829709539209104,-360,360,0,0,0,0,7.84216782344207e-13,0
101,NY2025:CEEC:GORDON_XFMR,9102,9103,1,1200,62.807092071376,62.3276178974233,0,0,-0.607140646042605,-360,360,0,0,0,0,7.81726188249369e-13,0
102,NY2025:NYES:1,9001,9104,1,1800,155.550999610679,158.056504432205,0,0,0.662204575825617,-360,360,0,0,0,0,2.86428933843956e-14,0
103,NY2025:NYES:2,9104,73,1,1800,158.056504432204,167.969232925498,0,0,0.957864017118265,-360,360,0,0,0,0,2.03468474968479e-13,0
104,NY2025:SMART_PATH:1,1220,48,1,575,159.069095353536,165.228088022337,0,0,-8.48398207332474,-360,360,0,0,0,0,2.8477166477148e-14,0
105,NY2025:SMART_PATH:2,1220,48,1,575,159.022544276086,165.186281227467,0,0,-8.48398207332474,-360,360,0,0,0,0,7.105427357601e-15,0
106,NY2025:SMART_PATH:3,1220,44,1,453,159.045819774554,157.216963746923,0,0,4.95831236403586,-360,360,0,0,0,0,2.85463362814443e-14,0
107,NY2025:SMART_PATH:4,1220,44,1,453,159.045819774554,157.216963746923,0,0,4.95831236403586,-360,360,0,0,0,0,2.85463362814443e-14,0
108,NY2025:NYC:DELIVERY:95:1,78,1130,1,908.848753535103,203.115264393583,202.987199218838,0,0,0.796205347347135,-360,360,0,0,0,0,7.63017119907025e-13,0
109,NY2025:NYC:DELIVERY:95:2,1130,79,1,908.848753535103,245.615576553669,245.477151044813,0,0,0.964443442629397,-360,360,0,0,0,0,2.84251786656236e-14,0
110,NY2025:NYC:DELIVERY:240:1,78,557,1,1390.53859290871,312.445040561977,312.265340913265,0,0,0.801917831484829,-360,360,0,0,0,0,1.52330658401893e-12,0
111,NY2025:NYC:DELIVERY:240:2,557,79,1,1390.53859290871,373.044192299226,372.813296008894,0,0,0.958730958491703,-360,360,0,0,0,0,5.72857867687912e-14,0
112,NY2025:NYC:DELIVERY:97:1,78,1129,1,503.818330764024,128.08847052805,127.941183989348,0,0,-0.904499545779224,-360,360,0,0,0,0,3.69908984989573e-13,0
113,NY2025:NYC:DELIVERY:97:2,1129,81,1,503.818330764024,139.141360263106,138.977390332025,0,0,-0.985127502866492,-360,360,0,0,0,0,1.67641412142232e-12,0
114,NY2025:NYC:DELIVERY:239:1,78,1129,1,1158.78216075726,294.122875265541,293.784668867475,0,0,-0.904499545779224,-360,360,0,0,0,0,1.5873117596753e-12,0
115,NY2025:NYC:DELIVERY:239:2,1129,81,1,1158.78216075726,319.503049573703,319.126533971732,0,0,-0.985127502866492,-360,360,0,0,0,0,3.09848778328348e-12,0
116,NY2025:NYC:RAINEY_XFMR,1130,1529,1,1500,42.6354914229683,42.6694362497405,0,0,-0.709677131508483,-360,360,0,0,0,0,7.76116633955281e-13,0
117,NY2025:NYC:ASTORIA_XFMR,557,1493,1,1500,60.9003855046438,60.9618309587526,0,0,-0.779152183285804,-360,360,0,0,0,0,1.92151094254471e-13,0
118,NY2025:NYC:CORONA_BASELINE,1493,601,1,2248,60.9618309587759,61.7012838402307,0,0,-0.0315930546155272,-360,360,0,0,0,0,2.68843739212096e-11,0
119,NY2025:RCC_QUEENS:CABLE,1529,601,1,300,42.6694362497397,42.6520658133746,0,0,-0.0953556222551537,-360,360,0,0,0,0,3.36270038590302e-12,0
120,NY2025:RCC_BROOKLYN:PAR,1129,9112,1,300,37.3001132060721,37.3750606744698,0,0,0.564105019479936,-360,360,0,0,0,0,7.58818391935067e-13,0
121,NY2025:RCC_BROOKLYN:CABLE,9112,9111,1,300,37.3750606744775,37.2139326348976,0,0,0.0141573033431861,-360,360,0,0,0,0,4.84870114601535e-11,0
122,NY2025:RCC_STATEN:PAR,81,9113,1,300,69.7852478991316,70.0213772379524,0,0,1.06141536992966,-360,360,0,0,0,0,7.47928502672765e-13,0
123,NY2025:RCC_STATEN:CABLE,9113,9114,1,300,70.0213772379505,68.7946440005817,0,0,0.2426247117664,-360,360,0,0,0,0,7.60853262257176e-13,0
124,NY2025:NYC:GREENWOOD_CORONA,9111,601,1,600,104.82630729408,104.139023908482,0,0,0.3174098165396,-360,360,0,0,0,0,2.26840142422985e-12,0
125,NY2025:NYC:FOX_GREENWOOD,9114,9111,1,600,68.7946440005828,67.9260548080522,0,0,0.259349743993557,-360,360,0,0,0,0,3.1043136878164e-12,0
